@<TRIPOS>MOLECULE
RES
35 37 1 0 1
SMALL
NO_CHARGES
@<TRIPOS>CRYSIN
   17.5800    12.7260    11.8860    90.0000    90.0000    90.0000  1  1
@<TRIPOS>ATOM
       1 C            4.5970    -0.7640     1.8140 C             1 RES     
       2 C            5.1990    -1.7990     2.4210 C             1 RES     
       3 C            4.5080    -2.8720     2.8350 C             1 RES     
       4 C            3.1890    -2.8670     2.5870 C             1 RES     
       5 C            2.5880    -1.8300     1.9820 C             1 RES     
       6 C            3.2620    -0.7240     1.6050 C             1 RES     
       7 C           -1.3570     1.3490     0.9050 C             1 RES     
       8 C           -0.4490     1.8830     0.0650 C             1 RES     
       9 C            0.8530     1.5550     0.1040 C             1 RES     
      10 C            0.4660     0.2000     1.8780 C             1 RES     
      11 C           -0.8360     0.5330     1.8450 C             1 RES     
      12 C           -5.3100     3.3390    -0.9140 C             1 RES     
      13 C           -4.5980     2.7750     0.0750 C             1 RES     
      14 C           -2.9650     2.2150    -1.4160 C             1 RES     
      15 C           -3.6780     2.7760    -2.4060 C             1 RES     
      16 C           -4.8620     3.3650    -2.1780 C             1 RES     
      17 C            2.6980     0.3600     0.9760 C             1 RES     
      18 C            1.3560     0.6610     0.9790 C             1 RES     
      19 C           -2.6960     1.6580     0.9160 C             1 RES     
      20 C           -3.3810     2.2250    -0.1330 C             1 RES     
      21 O            3.4420     1.1110     0.3670 O             1 RES     
      22 O           -3.3250     1.4070     1.9300 O             1 RES     
      23 H            5.2640     0.0660     1.5250 H             1 RES     
      24 H            6.2900    -1.7740     2.5870 H             1 RES     
      25 O            5.1110    -3.9310     3.4430 O             1 RES     
      26 H            2.5970    -3.7560     2.8640 H             1 RES     
      27 H            1.5250    -1.9900     1.7490 H             1 RES     
      28 H            0.7640    -0.4130     2.7420 H             1 RES     
      29 H            1.4920     2.0680    -0.6360 H             1 RES     
      30 H           -0.7050     2.6790    -0.6490 H             1 RES     
      31 H           -1.4580     0.0910     2.6410 H             1 RES     
      32 H           -2.0640     1.6800    -1.7480 H             1 RES     
      33 H           -3.3030     2.7290    -3.4430 H             1 RES     
      34 H           -6.2900     3.7950    -0.6890 H             1 RES     
      35 H           -5.0620     2.8200     1.0740 H             1 RES     
@<TRIPOS>BOND
       1       20       13 1
       2       12       13 1
       3       35       13 1
       4       14       20 1
       5       19       20 1
       6       15       14 1
       7       32       14 1
       8        7       19 1
       9       22       19 1
      10       12       16 1
      11       15       16 1
      12        2        1 1
      13        6        1 1
      14       23        1 1
      15        3        2 1
      16       24        2 1
      17        5        6 1
      18       17        6 1
      19        4        3 1
      20       25        3 1
      21        4        5 1
      22       27        5 1
      23       18       17 1
      24       21       17 1
      25       26        4 1
      26        9       18 1
      27       10       18 1
      28        8        7 1
      29       11        7 1
      30        9        8 1
      31       30        8 1
      32       10       11 1
      33       31       11 1
      34       29        9 1
      35       28       10 1
      36       34       12 1
      37       33       15 1
@<TRIPOS>SUBSTRUCTURE
       1 RES             1 RESIDUE    0 **** ROOT      0
