@<TRIPOS>MOLECULE
RES
35 37 1 0 1
SMALL
NO_CHARGES
@<TRIPOS>CRYSIN
    9.9140    18.5100    10.3200    90.0000    90.0000    90.0000  1  1
@<TRIPOS>ATOM
       1 C            1.3840     4.5660    -1.4300 C             1 RES     
       2 C            1.0650     5.7840    -1.8960 C             1 RES     
       3 C           -0.2010     6.1140    -2.1960 C             1 RES     
       4 C           -1.1320     5.1720    -1.9820 C             1 RES     
       5 C           -0.8110     3.9530    -1.5200 C             1 RES     
       6 C            0.4630     3.5920    -1.2610 C             1 RES     
       7 C            0.3480     0.1540    -0.0690 C             1 RES     
       8 C            0.0790     1.2200    -0.8610 C             1 RES     
       9 C           -0.9110     1.0510    -1.7580 C             1 RES     
      10 C           -1.3510    -1.0920    -0.9660 C             1 RES     
      11 C           -0.3220    -1.0220    -0.0990 C             1 RES     
      12 C           -1.0180    -6.0320     0.3830 C             1 RES     
      13 C           -1.0520    -5.2040    -0.6720 C             1 RES     
      14 C           -0.3530    -3.3530     0.6110 C             1 RES     
      15 C           -0.2730    -4.2090     1.6530 C             1 RES     
      16 C           -0.6080    -5.5050     1.5470 C             1 RES     
      17 C            0.8430     2.3610    -0.7780 C             1 RES     
      18 C           -1.6290    -0.0790    -1.7970 C             1 RES     
      19 C           -0.7190    -3.9070    -0.5630 C             1 RES     
      20 O            1.9360     2.2810    -0.2430 O             1 RES     
      21 O           -0.5350     7.3500    -2.6600 O             1 RES     
      22 C            0.0060    -2.0350     0.7730 C             1 RES     
      23 O            0.6570    -1.7490     1.7630 O             1 RES     
      24 H            2.4570     4.4060    -1.2250 H             1 RES     
      25 H            1.8580     6.5390    -2.0370 H             1 RES     
      26 H           -2.1900     5.4250    -2.1660 H             1 RES     
      27 H           -1.6720     3.3060    -1.2950 H             1 RES     
      28 H            1.1730     0.2510     0.6530 H             1 RES     
      29 H           -1.1530     1.7840    -2.5410 H             1 RES     
      30 H           -2.0530    -1.9370    -1.0090 H             1 RES     
      31 H           -1.3320    -5.6140    -1.6580 H             1 RES     
      32 H            0.0420    -3.8860     2.6600 H             1 RES     
      33 H           -0.5460    -6.1600     2.4330 H             1 RES     
      34 H           -2.4570    -0.1770    -2.5210 H             1 RES     
      35 H           -0.6920    -3.3590    -1.5170 H             1 RES     
@<TRIPOS>BOND
       1       22       11 1
       2        7       11 1
       3       10       11 1
       4       14       22 1
       5       23       22 1
       6       19       14 1
       7       15       14 1
       8       13       12 1
       9       16       12 1
      10        2        1 1
      11        6        1 1
      12       24        1 1
      13        3        2 1
      14       25        2 1
      15        5        6 1
      16       17        6 1
      17        4        3 1
      18       21        3 1
      19        4        5 1
      20       27        5 1
      21        8       17 1
      22       20       17 1
      23       26        4 1
      24        7        8 1
      25        9        8 1
      26       28        7 1
      27       18        9 1
      28       29        9 1
      29       18       10 1
      30       30       10 1
      31       34       18 1
      32       19       13 1
      33       31       13 1
      34       15       16 1
      35       33       16 1
      36       35       19 1
      37       32       15 1
@<TRIPOS>SUBSTRUCTURE
       1 RES             1 RESIDUE    0 **** ROOT      0
